/*--------------------------------*- C++ -*----------------------------------*\
  =========                 |
  \\      /  F ield         | OpenFOAM: The Open Source CFD Toolbox
   \\    /   O peration     | Website:  https://openfoam.org
    \\  /    A nd           | Version:  dev
     \\/     M anipulation  |
\*---------------------------------------------------------------------------*/
FoamFile
{
    version     2.0;
    format      ascii;
    class       volScalarField;
    location    "0";
    object      phirs;
}
// * * * * * * * * * * * * * * * * * * * * * * * * * * * * * * * * * * * * * //

dimensions      [0 0 0 0 0 0 0];

internalField   uniform 0.01;

boundaryField
{
    bottom
    {
        type            codedMixed;
        refValue        uniform 0.01;
        refGradient     uniform 0;
        valueFraction   uniform 0;
        name            noflux_phirs_bot;
        code            
        #{
            const fvPatch& boundaryPatch = patch();
            const fvBoundaryMesh& boundaryMesh = boundaryPatch.boundaryMesh();
            const fvMesh& mesh = boundaryMesh.mesh();
            const vectorField& Cf = boundaryPatch.Cf();
            const labelList& faceOwner = boundaryPatch.faceCells();

            scalar zvel=0.0;
            scalar vface=0.0;

            scalar delta;
            scalar D=8.71e-7;

            const volScalarField& phirs_cc = db().lookupObject<volScalarField>("phirs");
            const fvPatchField<vector>& Uf = boundaryPatch.lookupPatchField<volVectorField,vector>("U");
            const fvPatchField<vector>& svel = boundaryPatch.lookupPatchField<volVectorField,vector>("setlvel");
          
            scalarField Dis = 1.0/mesh.deltaCoeffs().boundaryField()[boundaryPatch.index()];

            vectorField nhat = this->patch().nf();
            scalar t=db().time().value();
            int cellid;

            forAll(Cf, faceI)
            {
                cellid=faceOwner[faceI];
                delta=Dis[faceI];

                zvel   = svel[faceI][2];
                vface  = zvel*nhat[faceI][2];

                this->refGrad()[faceI]  = 0.0;
                this->valueFraction()[faceI] = 1.0;
                this->refValue()[faceI] = phirs_cc[cellid]*exp(vface*delta/D);
              }
        #};
    }
    top
    {
        type            codedMixed;
        refValue        uniform 0.01;
        refGradient     uniform 0;
        valueFraction   uniform 0;
        name            noflux_phirs_top;
        code            
        #{
            const fvPatch& boundaryPatch = patch();
            const fvBoundaryMesh& boundaryMesh = boundaryPatch.boundaryMesh();
            const fvMesh& mesh = boundaryMesh.mesh();
            const vectorField& Cf = boundaryPatch.Cf();
            const labelList& faceOwner = boundaryPatch.faceCells();

            scalar zvel=0.0;
            scalar vface=0.0;

            scalar delta;
            scalar D=8.71e-7;

            const volScalarField& phirs_cc = db().lookupObject<volScalarField>("phirs");
            const fvPatchField<vector>& Uf = boundaryPatch.lookupPatchField<volVectorField,vector>("U");
            const fvPatchField<vector>& svel = boundaryPatch.lookupPatchField<volVectorField,vector>("setlvel");
          
            scalarField Dis = 1.0/mesh.deltaCoeffs().boundaryField()[boundaryPatch.index()];

            vectorField nhat = this->patch().nf();
            scalar t=db().time().value();
            int cellid;

            forAll(Cf, faceI)
            {
                cellid=faceOwner[faceI];
                delta=Dis[faceI];

                zvel   = svel[faceI][2];
                vface  = zvel*nhat[faceI][2];

                this->refGrad()[faceI]  = 0.0;
                this->valueFraction()[faceI] = 1.0;
                this->refValue()[faceI] = phirs_cc[cellid]*exp(vface*delta/D);
              }
        #};
    }
    lateralWall
    {
        type            codedMixed;
        refValue        uniform 0.01;
        refGradient     uniform 0;
        valueFraction   uniform 0;
        name            noflux_phirs_l;
        code            
        #{
            const fvPatch& boundaryPatch = patch();
            const fvBoundaryMesh& boundaryMesh = boundaryPatch.boundaryMesh();
            const fvMesh& mesh = boundaryMesh.mesh();
            const vectorField& Cf = boundaryPatch.Cf();
            const labelList& faceOwner = boundaryPatch.faceCells();

            scalar zvel=0.0;
            scalar vface=0.0;

            scalar delta;
            scalar D=8.71e-7;

            const volScalarField& phirs_cc  = db().lookupObject<volScalarField>("phirs");
            const fvPatchField<vector>& Uf = boundaryPatch.lookupPatchField<volVectorField,vector>("U");
            const fvPatchField<vector>& svel = boundaryPatch.lookupPatchField<volVectorField,vector>("setlvel");
          
            scalarField Dis = 1.0/mesh.deltaCoeffs().boundaryField()[boundaryPatch.index()];

            vectorField nhat = this->patch().nf();
            scalar t=db().time().value();
            int cellid;

            forAll(Cf, faceI)
            {
                cellid=faceOwner[faceI];
                delta=Dis[faceI];

                zvel   = svel[faceI][2];
                vface  = zvel*nhat[faceI][2];

                this->refGrad()[faceI]  = 0.0;
                this->valueFraction()[faceI] = 1.0;
                this->refValue()[faceI] = phirs_cc[cellid]*exp(vface*delta/D);
              }
        #};
    }
}


// ************************************************************************* //
