//--------------------------------*- C++ -*----------------------------------
// blockMesh :  Block mesh description file
//
// adapted from:
// http://www.cfd-online.com/Forums/openfoam-meshing-blockmesh/61796-help-could-anyone-post-simple-cylinder-mesh.html
//
// JJS, 1/8/16
//
// * * * * * * * * * * * * * * * * * * * * * * * * * * * * * * * * * * * * * //
FoamFile
{
  version  2.0;
  format   ascii;
  class dictionary;
  object blockMeshDict;
}
// ************************************






   convertToMeters 1;

      // outer cylinder diameter
     // outer cylinder length
      //  inner cylinder diameter
   
   
   
   
   
    //Width of middle square section
   
   
   

   
   

    //how many cells in the square section
    //how many cells from square section to perimeter
    // how many cells from top to bottom

   vertices
   (
    //Bottom surface
    //==========

    //square
    ( 0.88375 0.0  0.88375) // Vertex fiveoclock_sq1 = 0 
    (-0.88375 0.0  0.88375) // Vertex sevenoclock_sq1 = 1 
    (-0.88375 0.0 -0.88375) // Vertex elevenoclock_sq1 = 2 
    ( 0.88375 0.0 -0.88375) // Vertex oneoclock_sq1 = 3 

    //outer circle
    ( 1.76776695455285 0.0  1.76776695137989) // Vertex fiveoclock_c11 = 4 
    (-1.76776695455285 0.0  1.76776695137989) // Vertex sevenoclock_c11 = 5 
    (-1.76776695455285 0.0 -1.76776695137989) // Vertex elevenoclock_c11 = 6 
    ( 1.76776695455285 0.0 -1.76776695137989) // Vertex oneoclock_c11 = 7 

    //inner circle
    ( 1.24981123686886 0.0  1.24981123462558) // Vertex fiveoclock_c21 = 8 
    (-1.24981123686886 0.0  1.24981123462558) // Vertex sevenoclock_c21 = 9 
    (-1.24981123686886 0.0 -1.24981123462558) // Vertex elevenoclock_c21 = 10 
    ( 1.24981123686886 0.0 -1.24981123462558) // Vertex oneoclock_c21 = 11 
   

    //Top surface

    //square
    ( 0.88375 40.0  0.88375) // Vertex fiveoclock_sq2 = 12 
    (-0.88375 40.0  0.88375) // Vertex sevenoclock_sq2 = 13 
    (-0.88375 40.0 -0.88375) // Vertex elevenoclock_sq2 = 14 
    ( 0.88375 40.0 -0.88375) // Vertex oneoclock_sq2 = 15 

    //outer circle
    ( 1.76776695455285 40.0  1.76776695137989) // Vertex fiveoclock_c12 = 16 
    (-1.76776695455285 40.0  1.76776695137989) // Vertex sevenoclock_c12 = 17 
    (-1.76776695455285 40.0 -1.76776695137989) // Vertex elevenoclock_c12 = 18 
    ( 1.76776695455285 40.0 -1.76776695137989) // Vertex oneoclock_c12 = 19 

    //inner circle
    ( 1.24981123686886 40.0  1.24981123462558) // Vertex fiveoclock_c22 = 20 
    (-1.24981123686886 40.0  1.24981123462558) // Vertex sevenoclock_c22 = 21 
    (-1.24981123686886 40.0 -1.24981123462558) // Vertex elevenoclock_c22 = 22 
    ( 1.24981123686886 40.0 -1.24981123462558) // Vertex oneoclock_c22 = 23 

   );				

   blocks
   (
    //square block
    hex (
       1 0 3 2
       13 12 15 14
       )
    (8 8 200)
    simpleGrading (1 1 1)

    //slice1
    hex (
       9 8 0 1
       21 20 12 13
       )
    (8 8 200)
    simpleGrading (1 1 1)

    //slice2
    hex (
       10 9 1 2
       22 21 13 14
       )
   (8 8 200)
simpleGrading (1 1 1)

   //slice3
   hex (
         11 10 2 3
         23 22 14 15
       )
   (8 8 200)
simpleGrading (1 1 1)

   //slice4
   hex (
         8 11 3 0
         20 23 15 12
       )
   (8 8  200)
   simpleGrading (1 1 1)

    //slice1
    hex (
       4 8 9 5
       16 20 21 17
       )
    (8 8 200)
    simpleGrading (1 1 1)

    //slice2
    hex (
       5 9 10 6
       17 21 22 18
       )
   (8 8 200)
simpleGrading (1 1 1)

   //slice3
   hex (
       6 10 11  7
       18 22 23  19
       )
   (8 8 200)
simpleGrading (1 1 1)

   //slice4
   hex (
       7 11 8  4
       19 23 20  16
       )
   (8 8  200)
   simpleGrading (1 1 1)
    
   );


   //create the quarter circles
   edges
   (
    arc 4 5   (0.0 0.0 2.5)
    arc 5 6 (-2.5 0.0 0.0)
    arc 6 7   (0.0 0.0 -2.5)
    arc 7 4     (2.5 0.0 0.0)

    arc 16 17   (0.0 40.0 2.5)
    arc 17 18 (-2.5 40.0 0.0)
    arc 18 19   (0.0 40.0 -2.5)
    arc 19 16     (2.5  40.0 0.0)
    
    arc 8 9   (0.0 0.0 1.7675)
    arc 9 10 (-1.7675 0.0 0.0)
    arc 10 11   (0.0 0.0 -1.7675)
    arc 11 8     (1.7675 0.0 0.0)

    arc 20 21   (0.0 40.0 1.7675)
    arc 21 22 (-1.7675 40.0 0.0)
    arc 22 23   (0.0 40.0 -1.7675)
    arc 23 20     (1.7675  40.0 0.0)
   );

   patches
   (
    patch inlet
    (
     (0 3 2 1)
     (0 8 9 1)
     (1 9 10 2)
     (2 10 11 3)
     (3 11 8 0)
    )

    patch outlet
    (
     (12 15 14 13)
     (12 20 21 13)
     (13 21 22 14)
     (14 22 23 15)
     (15 23 20 12)

     (20 16 17 21)
     (21 17 18 22)
     (22 18 19 23)
     (23 19 16 20)

    )

    wall walls
    (
     (8 4 5 9)
     (9 5 6 10)
     (10 6 7 11)
     (11 7 4 8)
     
     (4 16 17 5)
     (5 17 18 6)
     (6 18 19 7)
     (7 19 16 4)
    )

);

mergePatchPairs
(
);
