/*--------------------------------*- C++ -*----------------------------------*\
| =========                 |                                                 |
| \\      /  F ield         | OpenFOAM: The Open Source CFD Toolbox           |
|  \\    /   O peration     | Version:  3.0.0                                 |
|   \\  /    A nd           | Web:      www.OpenFOAM.org                      |
|    \\/     M anipulation  |                                                 |
\*---------------------------------------------------------------------------*/
FoamFile
{
    version     2.0;
    format      ascii;
    class       dictionary;
    location    "system";
    object      fvSchemes;
}
// * * * * * * * * * * * * * * * * * * * * * * * * * * * * * * * * * * * * * //

ddtSchemes
{
    default         Euler;
}

gradSchemes
{
    default         Gauss linear;
}

divSchemes
{
    default                         none;

    "div\(phi,alpha.*\)"            Gauss upwind;
    "div\(phir,alpha.*\)"           Gauss upwind;

    "div\(alphaRhoPhi.*,U.*\)"      Gauss upwind;
    "div\(phi.*,U.*\)"              Gauss upwind;

    "div\(alphaRhoPhi.*,Yi\)"       Gauss upwind;
    "div\(alphaRhoPhi.*,(h|e).*\)"  Gauss upwind;
    "div\(alphaRhoPhi.*,K.*\)"      Gauss upwind;
    "div\(alphaPhi.*,p\)"           Gauss upwind;

    "div\(alphaRhoPhi.*,K.*\)"      Gauss upwind;

    "div\(alphaRhoPhi.*,(k|epsilon).*\)"  Gauss upwind;
    "div\(phim,(k|epsilon)m\)"      Gauss upwind;

    "div\(\(\(\(alpha.*\*thermo:rho.*\)\*nuEff.*\)\*dev2\(T\(grad\(U.*\)\)\)\)\)" Gauss linear;
}

laplacianSchemes
{
    default         Gauss linear uncorrected;
}

interpolationSchemes
{
    default         linear;
}

snGradSchemes
{
    default         uncorrected;
}

wallDist
{
    method  meshWave;
}

// ************************************************************************* //
