/*--------------------------------*- C++ -*----------------------------------*\
  =========                 |
  \\      /  F ield         | OpenFOAM: The Open Source CFD Toolbox
   \\    /   O peration     | Website:  https://openfoam.org
    \\  /    A nd           | Version:  dev
     \\/     M anipulation  |
\*---------------------------------------------------------------------------*/
FoamFile
{
    version     2.0;
    format      ascii;
    class       volScalarField;
    location    "0";
    object      rho;
}
// * * * * * * * * * * * * * * * * * * * * * * * * * * * * * * * * * * * * * //

dimensions      [1 -3 0 0 0 0 0];

internalField   uniform 1000;

boundaryField
{
    bottom
    {
        type            zeroGradient;
    }
    outlet
    {
        type            zeroGradient;
    }
    propeller
    {
        type            zeroGradient;
    }
    lateralWall
    {
        type            zeroGradient;
    }
    inside_to_hub
    {
        type            empty;
    }
    inside_to_hub_copy
    {
        type            empty;
    }
    hub_to_rotor
    {
        type            empty;
    }
    hub_to_rotor_copy
    {
        type            empty;
    }
}


// ************************************************************************* //
